$DATA1 SOURCE='HSPICE' VERSION='F-2011.09-SP1 32-BIT'
.TITLE '*************************'
 risedelay        falldelay        risetime         falltime          
 switchpower      leakpower        switchengergy    temper            
 alter#            
  3.165e-12        3.195e-12        3.112e-12        2.724e-12        
  2.873e-07        5.258e-12        5.747e-16         25.0000         
 1                 
