$DATA1 SOURCE='HSPICE' VERSION='F-2011.09-SP1 32-BIT'
.TITLE '*************************'
 risedelay        falldelay        risetime         falltime          
 switchpower      leakpower        switchengergy    temper            
 alter#            
  3.039e-12        3.068e-12        2.710e-12        3.036e-12        
  3.031e-07        1.968e-08        6.062e-16         25.0000         
 1                 
